<?xml version="1.0" encoding="UTF-8"?>

<!-- generated on 2025-11-27T11:37:02.111426+01:00 by Eclipse SUMO netconvert 1.25.0
<netconvertConfiguration xmlns:xsi="http://www.w3.org/2001/XMLSchema-instance" xsi:noNamespaceSchemaLocation="http://sumo.dlr.de/xsd/netconvertConfiguration.xsd">

    <input>
        <osm-files value="data/ekas.osm"/>
    </input>

    <output>
        <output-file value="data/ekas.net.xml"/>
        <output.street-names value="true"/>
        <output.original-names value="true"/>
    </output>

    <projection>
        <proj.utm value="true"/>
    </projection>

    <processing>
        <geometry.remove value="true"/>
        <geometry.min-dist value="0.5"/>
        <geometry.max-grade.fix value="true"/>
        <offset.disable-normalization value="false"/>
        <roundabouts.guess value="true"/>
        <edges.join value="true"/>
    </processing>

    <building_defaults>
        <default.lanewidth value="3.5"/>
        <default.sidewalk-width value="2.0"/>
        <default.bikelane-width value="1.5"/>
        <default.crossing-width value="4.0"/>
    </building_defaults>

    <tls_building>
        <tls.discard-simple value="true"/>
        <tls.join value="true"/>
        <tls.guess-signals value="true"/>
        <tls.default-type value="actuated"/>
        <tls.group-signals value="true"/>
    </tls_building>

    <ramp_guessing>
        <ramps.guess value="true"/>
    </ramp_guessing>

    <edge_removal>
        <remove-edges.isolated value="true"/>
    </edge_removal>

    <junctions>
        <no-internal-links value="false"/>
        <no-turnarounds value="true"/>
        <junctions.join value="false"/>
        <junctions.join-dist value="10.0"/>
        <junctions.join-same value="10"/>
        <junctions.corner-detail value="5"/>
        <junctions.scurve-stretch value="1.0"/>
        <rectangular-lane-cut value="true"/>
    </junctions>

    <pedestrian>
        <sidewalks.guess value="false"/>
        <sidewalks.guess.from-permissions value="false"/>
        <crossings.guess value="false"/>
    </pedestrian>

    <bicycle>
        <bikelanes.guess value="false"/>
        <bikelanes.guess.from-permissions value="false"/>
    </bicycle>

    <formats>
        <osm.layer-elevation value="4"/>
        <osm.layer-elevation.max-grade value="5"/>
        <osm.lane-access value="true"/>
        <osm.bike-access value="true"/>
        <osm.sidewalks value="true"/>
        <osm.crossings value="true"/>
        <osm.turn-lanes value="true"/>
        <osm.all-attributes value="true"/>
    </formats>

    <report>
        <aggregate-warnings value="5"/>
    </report>

</netconvertConfiguration>
-->

<net version="1.20" junctionCornerDetail="5" rectangularLaneCut="true" limitTurnSpeed="5.50" xmlns:xsi="http://www.w3.org/2001/XMLSchema-instance" xsi:noNamespaceSchemaLocation="http://sumo.dlr.de/xsd/net_file.xsd">

    <location netOffset="-374276.06,-6401289.19" convBoundary="0.00,0.00,865.28,1075.04" origBoundary="12.887766,57.736339,12.902851,57.745748" projParameter="+proj=utm +zone=33 +ellps=WGS84 +datum=WGS84 +units=m +no_defs"/>

    <type id="highway.path" priority="1" numLanes="1" speed="5.56" allow="pedestrian bicycle" oneway="0" width="2.00"/>
    <type id="highway.residential" priority="3" numLanes="1" speed="13.89" disallow="tram rail_urban rail rail_electric rail_fast ship container cable_car subway aircraft wheelchair scooter drone" oneway="0"/>
    <type id="highway.secondary" priority="11" numLanes="1" speed="27.78" disallow="tram rail_urban rail rail_electric rail_fast ship container cable_car subway aircraft wheelchair scooter drone" oneway="0"/>
    <type id="highway.service" priority="1" numLanes="1" speed="5.56" allow="pedestrian delivery bicycle" oneway="0"/>

    <edge id=":1397503189_0" function="internal">
        <lane id=":1397503189_0_0" index="0" allow="pedestrian bicycle" speed="5.56" length="10.55" width="2.00" shape="457.55,665.05 455.66,664.70 453.68,665.47 451.63,667.37 449.49,670.40"/>
    </edge>
    <edge id=":1397503189_1" function="internal">
        <lane id=":1397503189_1_0" index="0" allow="pedestrian delivery bicycle" speed="5.56" length="11.59" width="3.50" shape="457.55,665.05 454.60,664.09 452.11,664.25 449.57,665.12 446.47,666.26"/>
    </edge>
    <edge id=":1397503189_2" function="internal">
        <lane id=":1397503189_2_0" index="0" allow="pedestrian bicycle" speed="5.56" length="9.62" width="2.00" shape="457.55,665.05 455.92,663.72 455.49,661.95 456.27,659.72 458.24,657.04"/>
    </edge>
    <edge id=":1397503189_3" function="internal">
        <lane id=":1397503189_3_0" index="0" allow="pedestrian bicycle" speed="4.18" length="4.23" width="2.00" shape="459.74,658.37 458.80,659.60 458.39,660.60 458.48,661.37 459.10,661.91"/>
    </edge>
    <edge id=":1397503189_4" function="internal">
        <lane id=":1397503189_4_0" index="0" allow="pedestrian bicycle" speed="5.56" length="15.83" width="2.00" shape="459.74,658.37 457.10,661.22 454.34,664.18 451.72,667.24 449.49,670.40"/>
    </edge>
    <edge id=":1397503189_5" function="internal">
        <lane id=":1397503189_5_0" index="0" allow="pedestrian bicycle" speed="5.56" length="15.61" width="2.00" shape="459.74,658.37 456.93,660.96 453.64,663.14 450.08,664.91 446.47,666.26"/>
    </edge>
    <edge id=":1397503189_6" function="internal">
        <lane id=":1397503189_6_0" index="0" allow="pedestrian bicycle" speed="5.56" length="14.33" width="2.00" shape="445.39,662.93 448.94,661.89 452.36,660.81 455.50,659.32 458.24,657.04"/>
    </edge>
    <edge id=":1397503189_7" function="internal">
        <lane id=":1397503189_7_0" index="0" allow="pedestrian delivery bicycle" speed="5.56" length="14.11" width="3.50" shape="445.39,662.93 448.91,661.82 452.35,661.02 455.74,660.92 459.10,661.91"/>
    </edge>
    <edge id=":1397503189_8" function="internal">
        <lane id=":1397503189_8_0" index="0" allow="pedestrian bicycle" speed="5.56" length="14.52" width="2.00" shape="445.39,662.93 449.67,662.10 451.78,663.07 451.72,665.84 449.49,670.40"/>
    </edge>
    <edge id=":1397503189_9" function="internal">
        <lane id=":1397503189_9_0" index="0" allow="pedestrian bicycle" speed="4.13" length="5.63" width="2.00" shape="447.78,669.36 448.70,667.53 448.78,666.40 448.04,665.98 446.47,666.26"/>
    </edge>
    <edge id=":1397503189_10" function="internal">
        <lane id=":1397503189_10_0" index="0" allow="pedestrian bicycle" speed="5.56" length="16.18" width="2.00" shape="447.78,669.36 450.05,666.16 452.74,663.00 455.57,659.94 458.24,657.04"/>
    </edge>
    <edge id=":1397503189_11" function="internal">
        <lane id=":1397503189_11_0" index="0" allow="pedestrian bicycle" speed="5.56" length="14.78" width="2.00" shape="447.78,669.36 450.77,665.14 453.66,662.48 456.43,661.41 459.10,661.91"/>
    </edge>
    <edge id=":751968507_0" function="internal">
        <lane id=":751968507_0_0" index="0" disallow="tram rail_urban rail rail_electric rail_fast ship container cable_car subway aircraft wheelchair scooter drone" speed="13.89" length="15.12" width="3.50" shape="428.71,721.60 420.62,734.37"/>
    </edge>
    <edge id=":751968507_1" function="internal">
        <lane id=":751968507_1_0" index="0" disallow="tram rail_urban rail rail_electric rail_fast ship container cable_car subway aircraft wheelchair scooter drone" speed="8.85" length="4.12" width="3.50" shape="428.71,721.60 426.36,724.31 425.89,724.56"/>
    </edge>
    <edge id=":751968507_6" function="internal">
        <lane id=":751968507_6_0" index="0" disallow="tram rail_urban rail rail_electric rail_fast ship container cable_car subway aircraft wheelchair scooter drone" speed="8.85" length="10.37" width="3.50" shape="425.89,724.56 423.45,725.83 419.98,726.14 415.94,725.25"/>
    </edge>
    <edge id=":751968507_2" function="internal">
        <lane id=":751968507_2_0" index="0" disallow="tram rail_urban rail rail_electric rail_fast ship container cable_car subway aircraft wheelchair scooter drone" speed="7.36" length="9.73" width="3.50" shape="417.09,721.94 419.87,722.58 422.24,722.43 424.20,721.48 425.74,719.74"/>
    </edge>
    <edge id=":751968507_3" function="internal">
        <lane id=":751968507_3_0" index="0" disallow="tram rail_urban rail rail_electric rail_fast ship container cable_car subway aircraft wheelchair scooter drone" speed="7.78" length="15.69" width="3.50" shape="417.09,721.94 420.84,723.94 422.68,726.68 422.60,730.15 420.62,734.37"/>
    </edge>
    <edge id=":751968507_4" function="internal">
        <lane id=":751968507_4_0" index="0" disallow="tram rail_urban rail rail_electric rail_fast ship container cable_car subway aircraft wheelchair scooter drone" speed="6.07" length="9.01" width="3.50" shape="417.67,732.48 418.87,729.99 418.98,727.96 418.01,726.38 415.94,725.25"/>
    </edge>
    <edge id=":751968507_5" function="internal">
        <lane id=":751968507_5_0" index="0" disallow="tram rail_urban rail rail_electric rail_fast ship container cable_car subway aircraft wheelchair scooter drone" speed="13.89" length="15.08" width="3.50" shape="417.67,732.48 425.74,719.74"/>
    </edge>
    <edge id=":881568923_0" function="internal">
        <lane id=":881568923_0_0" index="0" allow="pedestrian delivery bicycle" speed="5.56" length="9.95" width="3.50" shape="404.37,826.25 403.55,816.33"/>
    </edge>
    <edge id=":881568923_1" function="internal">
        <lane id=":881568923_1_0" index="0" allow="pedestrian delivery bicycle" speed="5.56" length="11.70" width="3.50" shape="404.37,826.25 404.60,822.99 405.85,820.73 408.11,819.49 411.37,819.26"/>
    </edge>
    <edge id=":881568923_2" function="internal">
        <lane id=":881568923_2_0" index="0" allow="pedestrian delivery bicycle" speed="5.04" length="5.45" width="3.50" shape="411.12,822.75 409.60,822.86 408.55,823.43 407.97,824.48 407.86,826.00"/>
    </edge>
    <edge id=":881568923_3" function="internal">
        <lane id=":881568923_3_0" index="0" allow="pedestrian delivery bicycle" speed="5.56" length="10.93" width="3.50" shape="411.12,822.75 408.02,822.16 405.73,820.89 404.24,818.95 403.55,816.33"/>
    </edge>
    <edge id=":881568923_4" function="internal">
        <lane id=":881568923_4_0" index="0" allow="pedestrian delivery bicycle" speed="5.56" length="5.96" width="3.50" shape="407.04,816.00 407.42,817.31 408.26,818.30 409.58,818.94 411.37,819.26"/>
    </edge>
    <edge id=":881568923_5" function="internal">
        <lane id=":881568923_5_0" index="0" allow="pedestrian delivery bicycle" speed="5.56" length="10.04" width="3.50" shape="407.04,816.00 407.86,826.00"/>
    </edge>
    <edge id=":881569182_0" function="internal">
        <lane id=":881569182_0_0" index="0" allow="pedestrian delivery bicycle" speed="5.56" length="14.74" width="3.50" shape="408.88,800.81 407.65,803.03 406.92,806.16 406.69,810.19 406.96,815.14"/>
    </edge>
    <edge id=":881569182_1" function="internal">
        <lane id=":881569182_1_0" index="0" allow="pedestrian bicycle" speed="5.56" length="16.77" width="2.00" shape="408.88,800.81 406.47,804.02 404.12,807.69 401.92,811.46 400.00,815.00"/>
    </edge>
    <edge id=":881569182_2" function="internal">
        <lane id=":881569182_2_0" index="0" allow="pedestrian bicycle" speed="5.56" length="17.47" width="2.00" shape="398.23,814.07 400.01,810.32 401.89,806.10 403.93,801.98 406.20,798.56"/>
    </edge>
    <edge id=":881569182_3" function="internal">
        <lane id=":881569182_3_0" index="0" allow="pedestrian bicycle" speed="5.56" length="17.56" width="2.00" shape="398.23,814.07 401.52,808.95 404.06,807.42 405.88,809.48 406.96,815.14"/>
    </edge>
    <edge id=":881569182_4" function="internal">
        <lane id=":881569182_4_0" index="0" allow="pedestrian bicycle" speed="4.64" length="7.00" width="2.00" shape="403.47,815.47 403.04,813.20 402.32,812.37 401.31,812.97 400.00,815.00"/>
    </edge>
    <edge id=":881569182_5" function="internal">
        <lane id=":881569182_5_0" index="0" allow="pedestrian delivery bicycle" speed="5.56" length="17.50" width="3.50" shape="403.47,815.47 403.20,809.82 403.57,805.12 404.57,801.37 406.20,798.56"/>
    </edge>
    <edge id=":881569219_0" function="internal">
        <lane id=":881569219_0_0" index="0" allow="pedestrian delivery bicycle" speed="5.42" length="5.53" width="3.50" shape="399.35,774.59 397.86,774.01 396.56,773.98 395.44,774.48 394.51,775.53"/>
    </edge>
    <edge id=":881569219_1" function="internal">
        <lane id=":881569219_1_0" index="0" allow="pedestrian delivery bicycle" speed="7.06" length="11.22" width="3.50" shape="399.35,774.59 396.85,772.75 395.60,770.57 395.59,768.07 396.83,765.22"/>
    </edge>
    <edge id=":881569219_2" function="internal">
        <lane id=":881569219_2_0" index="0" allow="pedestrian delivery bicycle" speed="5.12" length="5.33" width="3.50" shape="399.81,767.06 399.22,768.41 399.23,769.60 399.82,770.63 401.00,771.51"/>
    </edge>
    <edge id=":881569219_3" function="internal">
        <lane id=":881569219_3_0" index="0" disallow="tram rail_urban rail rail_electric rail_fast ship container cable_car subway aircraft wheelchair scooter drone" speed="13.89" length="9.99" width="3.50" shape="399.81,767.06 394.51,775.53"/>
    </edge>
    <edge id=":881569219_4" function="internal">
        <lane id=":881569219_4_0" index="0" disallow="tram rail_urban rail rail_electric rail_fast ship container cable_car subway aircraft wheelchair scooter drone" speed="13.89" length="9.95" width="3.50" shape="391.56,773.66 396.83,765.22"/>
    </edge>
    <edge id=":881569219_5" function="internal">
        <lane id=":881569219_5_0" index="0" allow="pedestrian delivery bicycle" speed="7.29" length="3.52" width="3.50" shape="391.56,773.66 393.43,771.50 394.02,771.21"/>
    </edge>
    <edge id=":881569219_6" function="internal">
        <lane id=":881569219_6_0" index="0" allow="pedestrian delivery bicycle" speed="7.29" length="7.36" width="3.50" shape="394.02,771.21 395.63,770.43 398.15,770.43 401.00,771.51"/>
    </edge>
    <edge id=":881569311_0" function="internal">
        <lane id=":881569311_0_0" index="0" allow="pedestrian bicycle" speed="5.56" length="11.48" width="2.00" shape="423.36,785.18 420.87,787.19 419.01,788.91 417.29,790.78 415.22,793.22"/>
    </edge>
    <edge id=":881569311_1" function="internal">
        <lane id=":881569311_1_0" index="0" allow="pedestrian bicycle" speed="5.56" length="12.21" width="2.00" shape="423.36,785.18 419.43,787.82 416.47,788.89 414.50,788.39 413.50,786.32"/>
    </edge>
    <edge id=":881569311_2" function="internal">
        <lane id=":881569311_2_0" index="0" allow="pedestrian bicycle" speed="5.56" length="6.54" width="2.00" shape="416.24,783.56 417.59,784.53 419.02,784.86 420.54,784.55 422.14,783.60"/>
    </edge>
    <edge id=":881569311_3" function="internal">
        <lane id=":881569311_3_0" index="0" allow="pedestrian delivery bicycle" speed="5.56" length="10.82" width="3.50" shape="416.24,783.56 417.62,785.59 417.91,787.88 417.11,790.43 415.22,793.22"/>
    </edge>
    <edge id=":881569311_4" function="internal">
        <lane id=":881569311_4_0" index="0" allow="pedestrian delivery bicycle" speed="5.56" length="4.91" width="3.50" shape="412.53,790.98 413.15,790.02 413.52,788.93 413.63,787.69 413.50,786.32"/>
    </edge>
    <edge id=":881569311_5" function="internal">
        <lane id=":881569311_5_0" index="0" allow="pedestrian bicycle" speed="5.56" length="12.17" width="2.00" shape="412.53,790.98 414.83,788.64 417.05,787.00 419.42,785.50 422.14,783.60"/>
    </edge>
    <edge id=":cluster_1397443974_1397503181_0" function="internal">
        <lane id=":cluster_1397443974_1397503181_0_0" index="0" disallow="tram rail_urban rail rail_electric rail_fast ship container cable_car subway aircraft wheelchair scooter drone" speed="16.66" length="14.22" width="3.50" shape="466.48,662.52 458.76,674.47"/>
    </edge>
    <edge id=":cluster_1397443974_1397503181_1" function="internal">
        <lane id=":cluster_1397443974_1397503181_1_0" index="0" allow="pedestrian delivery bicycle" speed="7.16" length="3.79" width="3.50" shape="466.48,662.52 464.69,664.67 463.82,665.16"/>
    </edge>
    <edge id=":cluster_1397443974_1397503181_6" function="internal">
        <lane id=":cluster_1397443974_1397503181_6_0" index="0" allow="pedestrian delivery bicycle" speed="7.16" length="6.41" width="3.50" shape="463.82,665.16 462.63,665.83 460.31,665.98 457.73,665.14"/>
    </edge>
    <edge id=":cluster_1397443974_1397503181_2" function="internal">
        <lane id=":cluster_1397443974_1397503181_2_0" index="0" allow="pedestrian delivery bicycle" speed="5.23" length="4.95" width="3.50" shape="459.28,662.00 460.52,662.40 461.63,662.31 462.63,661.73 463.51,660.67"/>
    </edge>
    <edge id=":cluster_1397443974_1397503181_3" function="internal">
        <lane id=":cluster_1397443974_1397503181_3_0" index="0" allow="pedestrian delivery bicycle" speed="7.73" length="14.16" width="3.50" shape="459.28,662.00 461.35,663.82 461.96,666.50 461.09,670.05 458.76,674.47"/>
    </edge>
    <edge id=":cluster_1397443974_1397503181_4" function="internal">
        <lane id=":cluster_1397443974_1397503181_4_0" index="0" allow="pedestrian delivery bicycle" speed="6.09" length="8.29" width="3.50" shape="455.80,672.59 457.44,669.73 458.31,667.53 458.41,666.00 457.73,665.14"/>
    </edge>
    <edge id=":cluster_1397443974_1397503181_5" function="internal">
        <lane id=":cluster_1397443974_1397503181_5_0" index="0" disallow="tram rail_urban rail rail_electric rail_fast ship container cable_car subway aircraft wheelchair scooter drone" speed="16.66" length="14.20" width="3.50" shape="455.80,672.59 463.51,660.67"/>
    </edge>
    <edge id=":cluster_1643601152_751968477_0" function="internal">
        <lane id=":cluster_1643601152_751968477_0_0" index="0" allow="pedestrian bicycle" speed="3.63" length="5.09" width="2.00" shape="404.26,715.27 403.80,720.34"/>
    </edge>
    <edge id=":cluster_1643601152_751968477_1" function="internal">
        <lane id=":cluster_1643601152_751968477_1_0" index="0" allow="pedestrian bicycle" speed="9.72" length="16.13" width="2.00" shape="404.26,715.27 401.35,717.13 399.46,720.90 397.70,725.06 395.17,728.07"/>
    </edge>
    <edge id=":cluster_1643601152_751968477_2" function="internal">
        <lane id=":cluster_1643601152_751968477_2_0" index="0" allow="pedestrian bicycle" speed="5.56" length="10.25" width="2.00" shape="404.26,715.27 400.99,715.25 398.79,714.38 397.67,712.66 397.62,710.10"/>
    </edge>
    <edge id=":cluster_1643601152_751968477_3" function="internal">
        <lane id=":cluster_1643601152_751968477_3_0" index="0" allow="pedestrian bicycle" speed="4.66" length="4.85" width="2.00" shape="401.07,710.67 401.08,711.95 401.57,712.81 402.57,713.25 404.05,713.28"/>
    </edge>
    <edge id=":cluster_1643601152_751968477_4" function="internal">
        <lane id=":cluster_1643601152_751968477_4_0" index="0" allow="pedestrian delivery bicycle" speed="6.45" length="11.83" width="3.50" shape="401.07,710.67 400.56,715.42 400.85,718.61 401.93,720.25 403.80,720.34"/>
    </edge>
    <edge id=":cluster_1643601152_751968477_5" function="internal">
        <lane id=":cluster_1643601152_751968477_5_0" index="0" allow="pedestrian delivery bicycle" speed="9.72" length="18.66" width="3.50" shape="401.07,710.67 399.76,717.52 398.33,722.71 396.80,726.23 395.17,728.07"/>
    </edge>
    <edge id=":cluster_1643601152_751968477_6" function="internal">
        <lane id=":cluster_1643601152_751968477_6_0" index="0" allow="pedestrian delivery bicycle" speed="9.72" length="15.71" width="3.50" shape="393.37,725.07 394.38,723.69 395.42,720.73 396.50,716.20 397.62,710.10"/>
    </edge>
    <edge id=":cluster_1643601152_751968477_7" function="internal">
        <lane id=":cluster_1643601152_751968477_7_0" index="0" allow="pedestrian bicycle" speed="9.72" length="16.23" width="2.00" shape="393.37,725.07 396.15,722.22 398.45,718.41 400.89,714.98 404.05,713.28"/>
    </edge>
    <edge id=":cluster_1643601152_751968477_8" function="internal">
        <lane id=":cluster_1643601152_751968477_8_0" index="0" disallow="tram rail_urban rail rail_electric rail_fast ship container cable_car subway aircraft wheelchair scooter drone" speed="13.89" length="11.50" width="3.50" shape="393.37,725.07 396.14,723.45 398.40,722.29 400.76,721.33 403.80,720.34"/>
    </edge>
    <edge id=":cluster_1643601152_751968477_9" function="internal">
        <lane id=":cluster_1643601152_751968477_9_0" index="0" disallow="tram rail_urban rail rail_electric rail_fast ship container cable_car subway aircraft wheelchair scooter drone" speed="13.89" length="10.65" width="3.50" shape="404.82,723.69 401.90,724.62 399.81,725.46 397.82,726.51 395.17,728.07"/>
    </edge>
    <edge id=":cluster_1643601152_751968477_10" function="internal">
        <lane id=":cluster_1643601152_751968477_10_0" index="0" allow="pedestrian delivery bicycle" speed="8.07" length="3.55" width="3.50" shape="404.82,723.69 401.29,723.93"/>
    </edge>
    <edge id=":cluster_1643601152_751968477_11" function="internal">
        <lane id=":cluster_1643601152_751968477_11_0" index="0" allow="pedestrian bicycle" speed="5.11" length="10.44" width="2.00" shape="404.82,723.69 404.05,713.28"/>
    </edge>
    <edge id=":cluster_1643601152_751968477_12" function="internal">
        <lane id=":cluster_1643601152_751968477_12_0" index="0" allow="pedestrian delivery bicycle" speed="8.07" length="15.86" width="3.50" shape="401.29,723.93 400.65,723.97 398.05,721.80 397.05,717.18 397.62,710.10"/>
    </edge>

    <edge id="-1022326867#0" from="881569219" to="9428779585" name="Alingsåsvägen" priority="11" type="highway.secondary" shape="395.58,770.58 364.27,819.98 335.68,866.14">
        <lane id="-1022326867#0_0" index="0" disallow="tram rail_urban rail rail_electric rail_fast ship container cable_car subway aircraft wheelchair scooter drone" speed="13.89" length="108.01" width="3.50" shape="394.51,775.53 365.75,820.91 337.17,867.06">
            <param key="origId" value="1022326867"/>
        </lane>
        <param key="cycleway:both" value="no"/>
        <param key="hazmat" value="designated"/>
        <param key="highway" value="secondary"/>
        <param key="lanes" value="2"/>
        <param key="maxspeed" value="50"/>
        <param key="name" value="Alingsåsvägen"/>
        <param key="overtaking" value="no"/>
        <param key="priority_road" value="designated"/>
        <param key="ref" value="180"/>
        <param key="sidewalk" value="no"/>
        <param key="smoothness" value="excellent"/>
        <param key="source" value="NVDB"/>
        <param key="surface" value="asphalt"/>
    </edge>
    <edge id="-1022326867#1" from="751968507" to="881569219" name="Alingsåsvägen" priority="11" type="highway.secondary" shape="423.46,726.70 402.75,758.96 395.58,770.58">
        <lane id="-1022326867#1_0" index="0" disallow="tram rail_urban rail rail_electric rail_fast ship container cable_car subway aircraft wheelchair scooter drone" speed="13.89" length="38.75" width="3.50" shape="420.62,734.37 404.23,759.89 399.81,767.06">
            <param key="origId" value="1022326867"/>
        </lane>
        <param key="cycleway:both" value="no"/>
        <param key="hazmat" value="designated"/>
        <param key="highway" value="secondary"/>
        <param key="lanes" value="2"/>
        <param key="maxspeed" value="50"/>
        <param key="name" value="Alingsåsvägen"/>
        <param key="overtaking" value="no"/>
        <param key="priority_road" value="designated"/>
        <param key="ref" value="180"/>
        <param key="sidewalk" value="no"/>
        <param key="smoothness" value="excellent"/>
        <param key="source" value="NVDB"/>
        <param key="surface" value="asphalt"/>
    </edge>
    <edge id="-1022326867#2" from="cluster_1397443974_1397503181" to="751968507" name="Alingsåsvägen" priority="11" type="highway.secondary" shape="457.28,673.53 445.08,692.78 437.77,703.78 423.46,726.70">
        <lane id="-1022326867#2_0" index="0" disallow="tram rail_urban rail rail_electric rail_fast ship container cable_car subway aircraft wheelchair scooter drone" speed="13.89" length="55.90" width="3.50" shape="458.76,674.47 446.55,693.73 439.24,704.73 428.71,721.60">
            <param key="origId" value="1022326867"/>
        </lane>
        <param key="cycleway:both" value="no"/>
        <param key="hazmat" value="designated"/>
        <param key="highway" value="secondary"/>
        <param key="lanes" value="2"/>
        <param key="maxspeed" value="50"/>
        <param key="name" value="Alingsåsvägen"/>
        <param key="origFrom" value="1397443974"/>
        <param key="overtaking" value="no"/>
        <param key="priority_road" value="designated"/>
        <param key="ref" value="180"/>
        <param key="sidewalk" value="no"/>
        <param key="smoothness" value="excellent"/>
        <param key="source" value="NVDB"/>
        <param key="surface" value="asphalt"/>
    </edge>
    <edge id="-1022326868#1" from="9428779609" to="cluster_1397443974_1397503181" name="Alingsåsvägen" priority="11" type="highway.secondary" shape="503.62,601.39 484.38,630.61 462.52,665.55">
        <lane id="-1022326868#1_0" index="0" disallow="tram rail_urban rail rail_electric rail_fast ship container cable_car subway aircraft wheelchair scooter drone" speed="19.44" length="71.50" width="3.50" shape="505.08,602.35 485.85,631.56 466.48,662.52">
            <param key="origId" value="1022326868"/>
        </lane>
        <param key="cycleway:left" value="no"/>
        <param key="cycleway:right" value="separate"/>
        <param key="hazmat" value="designated"/>
        <param key="highway" value="secondary"/>
        <param key="lanes" value="2"/>
        <param key="maxspeed" value="70"/>
        <param key="name" value="Alingsåsvägen"/>
        <param key="origTo" value="1397503181"/>
        <param key="overtaking" value="no"/>
        <param key="priority_road" value="designated"/>
        <param key="ref" value="180"/>
        <param key="smoothness" value="excellent"/>
        <param key="source" value="NVDB"/>
        <param key="surface" value="asphalt"/>
    </edge>
    <edge id="-1086366498" from="881569311" to="9954162936" priority="1" type="highway.path" shape="415.88,789.70 430.58,778.34 440.47,774.15 448.69,773.23 457.99,773.13 471.88,775.71 480.00,774.84 494.03,769.76 497.48,766.61 499.86,763.87 532.51,713.20 542.33,705.14 564.19,696.14 581.45,686.99 591.64,672.31 604.69,658.61">
        <lane id="-1086366498_0" index="0" allow="pedestrian bicycle" speed="5.56" length="236.51" width="2.00" shape="422.14,783.60 430.07,777.47 440.21,773.17 448.63,772.23 458.08,772.13 471.92,774.70 479.77,773.86 493.50,768.89 496.76,765.91 499.06,763.27 531.75,712.53 541.81,704.27 563.76,695.23 580.77,686.22 590.86,671.68 603.97,657.92">
            <param key="origId" value="1086366498"/>
        </lane>
        <param key="highway" value="path"/>
    </edge>
    <edge id="-1086366499" from="9954162949" to="881569182" priority="1" type="highway.path" shape="339.93,976.50 343.06,967.95 361.84,929.06 375.96,886.69 392.94,826.25 405.94,801.60">
        <lane id="-1086366499_0" index="0" allow="pedestrian bicycle" speed="5.56" length="173.11" width="2.00" shape="338.99,976.16 342.14,967.56 360.91,928.68 375.00,886.40 392.01,825.88 398.23,814.07">
            <param key="origId" value="1086366499"/>
        </lane>
        <param key="highway" value="path"/>
        <param key="surface" value="dirt"/>
    </edge>
    <edge id="-125947958#1" from="1397503189" to="cluster_1643601152_751968477" priority="1" type="highway.service" shape="455.22,661.95 451.61,662.77 444.49,665.06 440.17,667.35 435.06,671.42 425.94,680.70 407.93,697.57 402.74,703.02 399.64,708.60 398.61,714.86">
        <lane id="-125947958#1_0" index="0" allow="pedestrian delivery bicycle" speed="5.56" length="64.41" width="3.50" shape="446.47,666.26 445.17,666.68 441.13,668.82 436.23,672.72 427.16,681.95 409.16,698.81 404.16,704.07 401.32,709.18 401.07,710.67">
            <param key="origId" value="125947958"/>
        </lane>
        <param key="highway" value="service"/>
        <param key="origTo" value="1643601152"/>
        <param key="smoothness" value="excellent"/>
        <param key="surface" value="asphalt"/>
    </edge>
    <edge id="-125947958#2" from="cluster_1397443974_1397503181" to="1397503189" priority="1" type="highway.service" shape="462.52,665.55 455.22,661.95">
        <lane id="-125947958#2_0" index="0" allow="pedestrian delivery bicycle" speed="5.56" length="0.20" width="3.50" shape="457.73,665.14 457.55,665.05">
            <param key="origId" value="125947958"/>
        </lane>
        <param key="highway" value="service"/>
        <param key="origFrom" value="1397503181"/>
        <param key="smoothness" value="excellent"/>
        <param key="surface" value="asphalt"/>
    </edge>
    <edge id="-151544158#2" from="1397503189" to="1643600898" priority="1" type="highway.path" shape="455.22,661.95 462.82,653.39 483.34,622.87 516.79,570.37 532.02,541.69 545.90,512.80 554.74,491.67 575.91,442.33 587.24,415.90 597.41,393.49 606.96,375.28 619.26,353.97 629.22,338.86 644.84,315.39 648.00,311.42 654.10,306.67 681.11,268.90 707.74,231.14 720.68,211.18 725.43,204.29 738.35,185.81 746.53,177.90 760.85,157.36 808.63,90.44 831.92,59.34 851.33,29.41 852.64,25.32 852.75,22.46 852.23,18.32 857.68,10.55 865.28,0.00">